53
	Energy:     -27.6353368
N         -3.50914        0.04353        0.12699
C         -2.14364        0.57618        0.02995
C         -1.52108        0.72776        1.40931
O         -0.49799        0.14599        1.70924
H         -4.11706        0.68541        0.61591
H         -1.52078       -0.12859       -0.50645
C         -2.13585        1.91557       -0.73750
H         -2.50986        1.77876       -1.73725
H         -2.76311        2.67783       -0.24305
H         -1.13091        2.31095       -0.80072
H         -3.90427       -0.06892       -0.79517
N         -2.17303        1.52346        2.26942
C         -1.82477        1.65917        3.69782
C         -1.95851        0.34539        4.43713
O         -1.07378       -0.10276        5.13661
H         -3.03000        1.98544        1.97588
H         -0.75402        1.92819        3.73831
C         -2.66607        2.74999        4.38648
H         -2.50050        3.72370        3.90814
H         -3.73874        2.49728        4.34540
H         -2.37619        2.86156        5.43930
N         -3.12343       -0.31358        4.24385
C         -3.42751       -1.64706        4.80003
C         -2.47016       -2.71937        4.31851
O         -2.11401       -3.63415        5.03442
H         -3.82118        0.09859        3.64685
H         -3.29073       -1.58073        5.86786
C         -4.88179       -2.06131        4.49865
H         -5.57616       -1.31853        4.92085
H         -5.04887       -2.14797        3.41461
H         -5.10464       -3.02671        4.96764
N         -2.10845       -2.64765        3.00899
C         -1.13668       -3.55608        2.38382
C          0.25225       -3.44116        2.99822
O          0.97769       -4.41663        3.12897
H         -2.42875       -1.86927        2.47737
H         -1.45915       -4.56944        2.55962
C         -1.06578       -3.33709        0.85977
H         -2.05589       -3.45165        0.42168
H         -0.68093       -2.34580        0.60976
H         -0.38739       -4.06697        0.41150
N          0.67520       -2.18911        3.27810
C          1.96312       -1.87425        3.89988
C          2.08317       -2.40228        5.31941
O          3.14210       -2.76783        5.78991
H          0.04432       -1.42409        3.10853
H          2.75307       -2.37232        3.33939
C          2.24403       -0.36090        3.87136
H          2.21452        0.02631        2.85872
H          1.51654        0.20623        4.43366
H          3.23396       -0.15358        4.28423
O          1.02457       -2.19190        6.05656
H          0.32139       -1.86188        5.45309
